
     RDKit          3D

 27 29  0  0  0  0  0  0  0  0999 V2000
   18.3147   -2.3265    7.6416 O   0  0  0  0  0  0  0  0  0  0  0  0
   17.4605   -1.4594    5.2598 C   0  0  0  0  0  0  0  0  0  0  0  0
   29.5862   -0.1714    2.5629 C   0  0  0  0  0  0  0  0  0  0  0  0
   25.2754    0.0434    4.7615 C   0  0  0  0  0  0  0  0  0  0  0  0
   16.8479    1.4159    7.2133 F   0  0  0  0  0  0  0  0  0  0  0  0
   28.2614    1.6701    3.6130 C   0  0  0  0  0  0  0  0  0  0  0  0
   21.7780   -0.2384    4.8259 C   0  0  0  0  0  0  0  0  0  0  0  0
   15.8160   -1.5738    3.4658 C   0  0  0  0  0  0  0  0  0  0  0  0
   27.0641    1.7718    4.2610 C   0  0  0  0  0  0  0  0  0  0  0  0
   27.4308   -0.3257    3.6979 N   0  0  0  0  0  0  0  0  0  0  0  0
   18.6671   -3.7719    5.7573 O   0  0  0  0  0  0  0  0  0  0  0  0
   18.5704    0.0607    7.3549 F   0  0  0  0  0  0  0  0  0  0  0  0
   26.5545    0.5005    4.2653 C   0  0  0  0  0  0  0  0  0  0  0  0
   24.1981   -0.3063    5.1419 C   0  0  0  0  0  0  0  0  0  0  0  0
   16.7827   -2.1870    4.2628 C   0  0  0  0  0  0  0  0  0  0  0  0
   18.6750   -2.3624    6.1941 S   0  0  0  0  0  0  0  0  0  0  0  0
   21.4226   -2.2374    6.7241 C   0  0  0  0  0  0  0  0  0  0  0  0
   17.7930    0.7854    6.4877 C   0  0  0  0  0  0  0  0  0  0  0  0
   28.4604    0.3821    3.2894 N   0  0  0  0  0  0  0  0  0  0  0  0
   20.5184   -0.7129    5.0695 C   0  0  0  0  0  0  0  0  0  0  0  0
   15.5085   -0.2409    3.6458 C   0  0  0  0  0  0  0  0  0  0  0  0
   17.1440   -0.0860    5.4219 C   0  0  0  0  0  0  0  0  0  0  0  0
   22.8859   -0.7648    5.5050 C   0  0  0  0  0  0  0  0  0  0  0  0
   20.3032   -1.7331    6.0241 C   0  0  0  0  0  0  0  0  0  0  0  0
   18.5598    1.7507    5.8981 F   0  0  0  0  0  0  0  0  0  0  0  0
   22.6930   -1.7638    6.4582 C   0  0  0  0  0  0  0  0  0  0  0  0
   16.1549    0.5047    4.6193 C   0  0  0  0  0  0  0  0  0  0  0  0
  1 16  2  0
  2 15  1  0
  2 16  1  0
  2 22  2  0
  3 19  1  0
  4 13  1  0
  4 14  3  0
  5 18  1  0
  6  9  2  0
  6 19  1  0
  7 20  2  0
  7 23  1  0
  8 15  2  0
  8 21  1  0
  9 13  1  0
 10 13  2  0
 10 19  1  0
 11 16  2  0
 12 18  1  0
 14 23  1  0
 16 24  1  0
 17 24  2  0
 17 26  1  0
 18 22  1  0
 18 25  1  0
 20 24  1  0
 21 27  2  0
 22 27  1  0
 23 26  2  0
M  END
>  <sigma_x>  (1) 
0.8759508728981018,0.8728551864624023,0.8854975700378418,0.8741303086280823,0.8838681578636169,0.8764512538909912,0.8761565089225769,0.8739806413650513,0.8724359273910522,0.8755511045455933,0.882588803768158,0.8838523626327515,0.8696290254592896,0.8760603070259094,0.876625657081604,0.8727625012397766,0.8733184337615967,0.8721126914024353,0.8785247802734375,0.8791785836219788,0.8756585717201233,0.8714528679847717,0.8721463084220886,0.8759961724281311,0.8818696737289429,0.8726012706756592,0.8728640079498291

>  <entropy_h>  (1) 
0.47568535804748535,0.4842281639575958,0.43331050872802734,0.5134353041648865,0.5711343884468079,0.5638021230697632,0.4897823929786682,0.4513128995895386,0.4804703891277313,0.6596358418464661,0.508935809135437,0.5700609683990479,0.44865939021110535,0.5287061333656311,0.5900475382804871,0.4921583831310272,0.3947860598564148,0.38328394293785095,0.5801912546157837,0.5225053429603577,0.3798648715019226,0.5061146020889282,0.46394485235214233,0.5028834939002991,0.4461881220340729,0.5255720615386963,0.5743495225906372

$$$$

     RDKit          3D

 26 28  0  0  0  0  0  0  0  0999 V2000
   17.0959   -0.0383    5.5042 C   0  0  0  0  0  0  0  0  0  0  0  0
   17.4350    2.6667    6.1338 C   0  0  0  0  0  0  0  0  0  0  0  0
   18.3709   -2.2473    4.3814 N   0  0  0  0  0  0  0  0  0  0  0  0
   26.5879    1.6614    4.7610 C   0  0  0  0  0  0  0  0  0  0  0  0
   27.7520    1.7198    2.6524 C   0  0  0  0  0  0  0  0  0  0  0  0
   21.6419   -0.5592    4.8214 C   0  0  0  0  0  0  0  0  0  0  0  0
   17.9981    0.3508    6.4943 C   0  0  0  0  0  0  0  0  0  0  0  0
   16.3546    0.9382    4.8572 C   0  0  0  0  0  0  0  0  0  0  0  0
   16.8793   -1.7257    5.0874 S   0  0  0  0  0  0  0  0  0  0  0  0
   27.2790    2.3567    3.7811 C   0  0  0  0  0  0  0  0  0  0  0  0
   26.4176   -1.1952    6.6581 C   0  0  0  0  0  0  0  0  0  0  0  0
   15.7949   -1.8674    4.0883 O   0  0  0  0  0  0  0  0  0  0  0  0
   24.4157   -0.2858    5.6027 N   0  0  0  0  0  0  0  0  0  0  0  0
   26.8774   -0.3556    3.4650 C   0  0  0  0  0  0  0  0  0  0  0  0
   18.1742    1.6998    6.8057 C   0  0  0  0  0  0  0  0  0  0  0  0
   16.5154    2.2873    5.1644 C   0  0  0  0  0  0  0  0  0  0  0  0
   21.4952   -2.4267    6.3491 C   0  0  0  0  0  0  0  0  0  0  0  0
   22.2480   -1.3386    5.8542 C   0  0  0  0  0  0  0  0  0  0  0  0
   26.3948    0.3042    4.6065 C   0  0  0  0  0  0  0  0  0  0  0  0
   23.5372   -1.0743    6.3517 N   0  0  0  0  0  0  0  0  0  0  0  0
   25.6761   -0.3855    5.6491 C   0  0  0  0  0  0  0  0  0  0  0  0
   20.3722   -0.8613    4.3581 C   0  0  0  0  0  0  0  0  0  0  0  0
   20.2274   -2.7203    5.8723 C   0  0  0  0  0  0  0  0  0  0  0  0
   16.5606   -2.5494    6.2964 O   0  0  0  0  0  0  0  0  0  0  0  0
   19.6694   -1.9492    4.8880 C   0  0  0  0  0  0  0  0  0  0  0  0
   27.5529    0.3653    2.4961 C   0  0  0  0  0  0  0  0  0  0  0  0
  1  7  2  0
  1  8  1  0
  1  9  1  0
  2 15  2  0
  2 16  1  0
  3  9  1  0
  3 25  1  0
  4 10  2  0
  4 19  1  0
  5 10  1  0
  5 26  2  0
  6 18  2  0
  6 22  1  0
  7 15  1  0
  8 16  2  0
  9 12  2  0
  9 24  2  0
 11 21  1  0
 13 20  1  0
 13 21  2  3
 14 19  2  0
 14 26  1  0
 17 18  1  0
 17 23  2  0
 18 20  1  0
 19 21  1  0
 22 25  2  0
 23 25  1  0
M  END
>  <sigma_x>  (2) 
0.8698632717132568,0.8699448108673096,0.8751978874206543,0.8855178952217102,0.8770515322685242,0.8727110624313354,0.8755587935447693,0.8750845193862915,0.8720622062683105,0.8845175504684448,0.8884857296943665,0.8767879605293274,0.8807336688041687,0.8842563033103943,0.8736238479614258,0.8705329895019531,0.8761276602745056,0.8716298937797546,0.8795701861381531,0.8744109869003296,0.8766384720802307,0.8731017112731934,0.874406099319458,0.8784326910972595,0.8722681999206543,0.8821039795875549

>  <entropy_h>  (2) 
0.2912687063217163,0.2889688313007355,0.6989678144454956,0.5075253248214722,0.598325788974762,0.3218214809894562,0.30954509973526,0.3543736934661865,0.6446612477302551,0.5066643357276917,0.6602416038513184,0.5896134972572327,0.5890757441520691,0.514866828918457,0.3075791895389557,0.2812613248825073,0.39184853434562683,0.3360678553581238,0.41040024161338806,0.5057262778282166,0.47650957107543945,0.3759872317314148,0.379833459854126,0.48714977502822876,0.4525679647922516,0.42923057079315186

$$$$

     RDKit          3D

 27 30  0  0  0  0  0  0  0  0999 V2000
   26.9654    0.4258    3.0028 C   0  0  0  0  0  0  0  0  0  0  0  0
   22.0542   -1.0361    5.9723 C   0  0  0  0  0  0  0  0  0  0  0  0
   20.2169    0.3667    4.8697 C   0  0  0  0  0  0  0  0  0  0  0  0
   19.6597   -1.6516    6.3008 C   0  0  0  0  0  0  0  0  0  0  0  0
   18.1520    2.7064    5.9678 C   0  0  0  0  0  0  0  0  0  0  0  0
   25.8686    1.4644    5.3119 C   0  0  0  0  0  0  0  0  0  0  0  0
   23.7974   -2.2478    7.1436 C   0  0  0  0  0  0  0  0  0  0  0  0
   18.6642    0.5101    4.7156 C   0  0  0  0  0  0  0  0  0  0  0  0
   15.7367   -2.1772    4.2114 O   0  0  0  0  0  0  0  0  0  0  0  0
   20.6524   -0.7830    5.7060 N   0  0  0  0  0  0  0  0  0  0  0  0
   17.8872    1.1933    5.8845 C   0  0  0  0  0  0  0  0  0  0  0  0
   18.1499   -0.9325    4.4207 C   0  0  0  0  0  0  0  0  0  0  0  0
   16.3902   -0.8490    2.3213 O   0  0  0  0  0  0  0  0  0  0  0  0
   24.7584   -1.5383    6.4639 C   0  0  0  0  0  0  0  0  0  0  0  0
   19.8884   -2.2714    7.3811 O   0  0  0  0  0  0  0  0  0  0  0  0
   23.0442   -0.3098    5.3066 C   0  0  0  0  0  0  0  0  0  0  0  0
   16.3562    0.9264    5.9053 C   0  0  0  0  0  0  0  0  0  0  0  0
   26.0014   -0.2954    3.6840 C   0  0  0  0  0  0  0  0  0  0  0  0
   15.7103    0.5386    4.5507 C   0  0  0  0  0  0  0  0  0  0  0  0
   20.7509    0.1787    3.5630 O   0  0  0  0  0  0  0  0  0  0  0  0
   27.3881    1.6404    3.4771 C   0  0  0  0  0  0  0  0  0  0  0  0
   26.8201    2.1653    4.6402 N   0  0  0  0  0  0  0  0  0  0  0  0
   25.4326    0.2243    4.8471 C   0  0  0  0  0  0  0  0  0  0  0  0
   16.4529   -0.9078    3.8045 S   0  0  0  0  0  0  0  0  0  0  0  0
   24.3946   -0.5530    5.5463 C   0  0  0  0  0  0  0  0  0  0  0  0
   18.3379   -1.8323    5.6518 C   0  0  0  0  0  0  0  0  0  0  0  0
   22.4523   -2.0069    6.8902 C   0  0  0  0  0  0  0  0  0  0  0  0
  1 18  2  0
  1 21  1  0
  2 10  1  0
  2 16  1  0
  2 27  2  0
  3  8  1  0
  3 10  1  0
  3 20  1  0
  4 10  1  0
  4 15  2  0
  4 26  1  0
  5 11  1  0
  6 22  1  0
  6 23  2  0
  7 14  2  0
  7 27  1  0
  8 11  1  0
  8 12  1  0
  9 24  2  0
 11 17  1  0
 12 24  1  0
 12 26  1  0
 13 24  2  0
 14 25  1  0
 16 25  2  0
 17 19  1  0
 18 23  1  0
 19 24  1  0
 21 22  2  0
 23 25  1  0
M  END
>  <sigma_x>  (3) 
0.8889639377593994,0.8755378127098083,0.8809150457382202,0.879409670829773,0.878505289554596,0.8797780275344849,0.8761414289474487,0.8787928223609924,0.8811609745025635,0.877099335193634,0.8782464265823364,0.8782486915588379,0.8803360462188721,0.873723030090332,0.8870053291320801,0.8737426400184631,0.8792537450790405,0.8836771249771118,0.8776060938835144,0.8817765712738037,0.8813402652740479,0.8842008709907532,0.8736621737480164,0.8741315603256226,0.8748651742935181,0.8815637826919556,0.8754777908325195

>  <entropy_h>  (3) 
0.7489966154098511,0.5158831477165222,0.7121292948722839,0.5270175933837891,0.5460259914398193,0.4929070472717285,0.6443756818771362,0.4427991211414337,0.6581419110298157,0.7422478795051575,0.48399126529693604,0.6014298796653748,0.47169479727745056,0.6096963882446289,0.6889327168464661,0.6033005714416504,0.40252789855003357,0.6790522336959839,0.4745880365371704,0.6978226900100708,0.5949249863624573,0.6718447804450989,0.5099996328353882,0.5209681391716003,0.45260053873062134,0.7453036308288574,0.4634912610054016

$$$$

     RDKit          3D

 20 21  0  0  0  0  0  0  0  0999 V2000
   20.9758   -0.1516    5.1314 C   0  0  0  0  0  0  0  0  0  0  0  0
   22.0374   -1.7629    6.5720 C   0  0  0  0  0  0  0  0  0  0  0  0
   19.7132   -0.5177    5.6080 C   0  0  0  0  0  0  0  0  0  0  0  0
   25.9773   -0.0393    5.0211 C   0  0  0  0  0  0  0  0  0  0  0  0
   18.5072    0.1191    5.0980 N   0  0  0  0  0  0  0  0  0  0  0  0
   26.1357    1.5179    5.2528 C   0  0  0  0  0  0  0  0  0  0  0  0
   19.6481   -1.5475    6.5720 C   0  0  0  0  0  0  0  0  0  0  0  0
   15.5030    0.7189    4.8655 N   0  0  0  0  0  0  0  0  0  0  0  0
   16.9286   -0.4942    3.2970 N   0  0  0  0  0  0  0  0  0  0  0  0
   24.7087   -0.5812    5.6622 C   0  0  0  0  0  0  0  0  0  0  0  0
   23.4302   -0.3736    5.0385 N   0  0  0  0  0  0  0  0  0  0  0  0
   18.2437    0.0136    3.6838 C   0  0  0  0  0  0  0  0  0  0  0  0
   20.7829   -2.1524    7.0444 C   0  0  0  0  0  0  0  0  0  0  0  0
   16.4297    1.2941    5.8134 C   0  0  0  0  0  0  0  0  0  0  0  0
   22.1402   -0.7630    5.6033 C   0  0  0  0  0  0  0  0  0  0  0  0
   24.7848   -1.2221    6.7391 O   0  0  0  0  0  0  0  0  0  0  0  0
   14.7346   -0.7222    3.1447 N   0  0  0  0  0  0  0  0  0  0  0  0
   15.8321    2.3198    6.7258 C   0  0  0  0  0  0  0  0  0  0  0  0
   15.7746   -0.1666    3.7851 C   0  0  0  0  0  0  0  0  0  0  0  0
   17.7361    0.9737    5.9612 C   0  0  0  0  0  0  0  0  0  0  0  0
  1  3  2  0
  1 15  1  0
  2 13  1  0
  2 15  2  0
  3  5  1  0
  3  7  1  0
  4  6  1  0
  4 10  1  0
  5 12  1  0
  5 20  1  0
  7 13  2  0
  8 14  1  0
  8 19  1  0
  9 12  1  0
  9 19  2  0
 10 11  1  0
 10 16  2  0
 11 15  1  0
 14 18  1  0
 14 20  2  0
 17 19  1  0
M  END
>  <sigma_x>  (4) 
0.8756224513053894,0.8764850497245789,0.8779482245445251,0.8790554404258728,0.8797687292098999,0.871952474117279,0.8801277279853821,0.8820538520812988,0.8878734707832336,0.8682318329811096,0.8752760291099548,0.8878869414329529,0.8780384659767151,0.8761618137359619,0.8736342787742615,0.8773777484893799,0.8808462619781494,0.8748064041137695,0.8821711540222168,0.8820561766624451

>  <entropy_h>  (4) 
0.46177271008491516,0.5889553427696228,0.3172416388988495,0.5412536263465881,0.7569218277931213,0.39648306369781494,0.4767521917819977,0.4632321000099182,0.5570781230926514,0.5099087357521057,0.4502401351928711,0.6460891962051392,0.3979906737804413,0.38242119550704956,0.30658575892448425,0.4953346848487854,0.6990163326263428,0.28103339672088623,0.4038234055042267,0.5050773024559021

$$$$

     RDKit          3D

 22 24  0  0  0  0  0  0  0  0999 V2000
   17.5628    0.2542    5.1747 C   0  0  0  0  0  0  0  0  0  0  0  0
   20.5632   -1.3155    6.8350 C   0  0  0  0  0  0  0  0  0  0  0  0
   25.8881   -1.5021    6.2898 N   0  0  0  0  0  0  0  0  0  0  0  0
   27.1839    0.0265    5.5894 C   0  0  0  0  0  0  0  0  0  0  0  0
   18.9053   -0.2742    5.4775 C   0  0  0  0  0  0  0  0  0  0  0  0
   15.2255    1.4280    4.3205 C   0  0  0  0  0  0  0  0  0  0  0  0
   17.0476   -1.8946    3.9465 C   0  0  0  0  0  0  0  0  0  0  0  0
   21.5632   -1.0008    5.9072 C   0  0  0  0  0  0  0  0  0  0  0  0
   22.9766   -1.2767    6.1198 C   0  0  0  0  0  0  0  0  0  0  0  0
   19.2541   -0.9530    6.6378 C   0  0  0  0  0  0  0  0  0  0  0  0
   16.0839    2.1406    5.1034 C   0  0  0  0  0  0  0  0  0  0  0  0
   23.8312   -0.4750    5.5342 N   0  0  0  0  0  0  0  0  0  0  0  0
   21.1974   -0.3292    4.7544 C   0  0  0  0  0  0  0  0  0  0  0  0
   17.2700    1.5712    5.5578 C   0  0  0  0  0  0  0  0  0  0  0  0
   18.2198    2.4091    6.3349 C   0  0  0  0  0  0  0  0  0  0  0  0
   16.6938   -0.4953    4.3593 C   0  0  0  0  0  0  0  0  0  0  0  0
   25.9808    0.4759    5.2291 N   0  0  0  0  0  0  0  0  0  0  0  0
   25.2287   -0.5149    5.6871 C   0  0  0  0  0  0  0  0  0  0  0  0
   27.1664   -1.1269    6.1942 N   0  0  0  0  0  0  0  0  0  0  0  0
   14.5230   -0.5720    3.0321 C   0  0  0  0  0  0  0  0  0  0  0  0
   19.8848    0.0347    4.5381 C   0  0  0  0  0  0  0  0  0  0  0  0
   15.4954    0.1191    3.9424 C   0  0  0  0  0  0  0  0  0  0  0  0
  1  5  1  0
  1 14  2  0
  1 16  1  0
  2  8  2  0
  2 10  1  0
  3 18  2  0
  3 19  1  0
  4 17  2  0
  4 19  1  0
  5 10  2  0
  5 21  1  0
  6 11  2  0
  6 22  1  0
  7 16  1  0
  8  9  1  0
  8 13  1  0
  9 12  2  3
 11 14  1  0
 12 18  1  0
 13 21  2  0
 14 15  1  0
 16 22  2  0
 17 18  1  0
 20 22  1  0
M  END
>  <sigma_x>  (5) 
0.8715499043464661,0.8804662823677063,0.8802047371864319,0.8781402111053467,0.8780145049095154,0.8704617023468018,0.8791144490242004,0.8723981380462646,0.8767533302307129,0.8774203062057495,0.8696605563163757,0.8766743540763855,0.8777653574943542,0.8706359267234802,0.8719348311424255,0.8715764284133911,0.880443811416626,0.8732614517211914,0.8791358470916748,0.8771440982818604,0.8791244626045227,0.8687034249305725

>  <entropy_h>  (5) 
0.3416265547275543,0.4996606111526489,0.8202625513076782,0.5580704212188721,0.6368060111999512,0.35690897703170776,0.651185154914856,0.3536456525325775,0.5754237771034241,0.3545437157154083,0.35358676314353943,0.524383544921875,0.4687431752681732,0.3446430563926697,0.376520037651062,0.3683754801750183,0.877909779548645,0.43850401043891907,0.7865004539489746,0.8227912187576294,0.43902188539505005,0.49002185463905334

$$$$

     RDKit          3D

 25 28  0  0  0  0  0  0  0  0999 V2000
   24.8659    0.4525    5.2250 N   0  0  0  0  0  0  0  0  0  0  0  0
   17.7339    1.2432    5.9257 N   0  0  0  0  0  0  0  0  0  0  0  0
   22.9496   -0.9467    5.9291 C   0  0  0  0  0  0  0  0  0  0  0  0
   18.4589   -2.7677    7.1814 O   0  0  0  0  0  0  0  0  0  0  0  0
   17.6429    2.6154    5.4458 C   0  0  0  0  0  0  0  0  0  0  0  0
   25.3481   -1.7205    6.0580 C   0  0  0  0  0  0  0  0  0  0  0  0
   16.5948   -2.0635    3.4336 C   0  0  0  0  0  0  0  0  0  0  0  0
   18.1804   -0.4103    7.7448 C   0  0  0  0  0  0  0  0  0  0  0  0
   18.3265    1.0469    7.2568 C   0  0  0  0  0  0  0  0  0  0  0  0
   17.3076    0.0958    5.1244 C   0  0  0  0  0  0  0  0  0  0  0  0
   24.4197   -0.7264    5.7316 C   0  0  0  0  0  0  0  0  0  0  0  0
   18.6633   -1.4262    6.6641 C   0  0  0  0  0  0  0  0  0  0  0  0
   22.0057   -0.3273    5.1122 C   0  0  0  0  0  0  0  0  0  0  0  0
   17.7943   -1.2212    5.4065 C   0  0  0  0  0  0  0  0  0  0  0  0
   26.1854    0.7019    5.0099 C   0  0  0  0  0  0  0  0  0  0  0  0
   27.1373   -0.2725    5.2955 C   0  0  0  0  0  0  0  0  0  0  0  0
   28.5982   -0.0136    5.0802 C   0  0  0  0  0  0  0  0  0  0  0  0
   26.7132   -1.4824    5.8363 C   0  0  0  0  0  0  0  0  0  0  0  0
   17.4313   -2.2972    4.5471 C   0  0  0  0  0  0  0  0  0  0  0  0
   22.5011   -1.7395    6.9963 C   0  0  0  0  0  0  0  0  0  0  0  0
   16.1182   -0.7642    3.1746 C   0  0  0  0  0  0  0  0  0  0  0  0
   20.6626   -0.4959    5.3048 C   0  0  0  0  0  0  0  0  0  0  0  0
   20.1827   -1.2902    6.3624 C   0  0  0  0  0  0  0  0  0  0  0  0
   16.4802    0.3064    3.9887 C   0  0  0  0  0  0  0  0  0  0  0  0
   21.1317   -1.9155    7.2045 C   0  0  0  0  0  0  0  0  0  0  0  0
  1 11  2  0
  1 15  1  0
  2  5  1  0
  2  9  1  0
  2 10  1  0
  3 11  1  0
  3 13  2  0
  3 20  1  0
  4 12  1  0
  6 11  1  0
  6 18  2  0
  7 19  2  0
  7 21  1  0
  8  9  1  0
  8 12  1  0
 10 14  2  0
 10 24  1  0
 12 14  1  0
 12 23  1  0
 13 22  1  0
 14 19  1  0
 15 16  2  0
 16 17  1  0
 16 18  1  0
 20 25  2  0
 21 24  2  0
 22 23  2  0
 23 25  1  0
M  END
>  <sigma_x>  (6) 
0.8739845156669617,0.8829283118247986,0.8704320788383484,0.879671037197113,0.8872771263122559,0.8727316856384277,0.8735347390174866,0.8774693012237549,0.8830651640892029,0.8713583946228027,0.8712368011474609,0.8688581585884094,0.872609555721283,0.8730129599571228,0.8760229349136353,0.8729831576347351,0.8860560655593872,0.8757756948471069,0.8735227584838867,0.8748309016227722,0.8805633783340454,0.8727878332138062,0.8753919005393982,0.8737415671348572,0.8765188455581665

>  <entropy_h>  (6) 
0.63167804479599,0.5669191479682922,0.396633505821228,0.5836194753646851,0.6796303987503052,0.5848199129104614,0.4570523798465729,0.5976344347000122,0.6166396141052246,0.3525446355342865,0.4387737810611725,0.6145386099815369,0.4484807550907135,0.39014890789985657,0.5921565890312195,0.6351625323295593,0.9429347515106201,0.6368199586868286,0.3844412863254547,0.5310623049736023,0.391009122133255,0.4517227113246918,0.6950780749320984,0.39772623777389526,0.4435894191265106

$$$$

     RDKit          3D

 24 27  0  0  0  0  0  0  0  0999 V2000
   24.5396   -0.9064    6.1884 C   0  0  0  0  0  0  0  0  0  0  0  0
   14.9339   -1.0960    3.3783 C   0  0  0  0  0  0  0  0  0  0  0  0
   20.1228   -0.4969    5.6641 C   0  0  0  0  0  0  0  0  0  0  0  0
   17.1895   -1.8550    3.9362 N   0  0  0  0  0  0  0  0  0  0  0  0
   18.1828    1.6016    6.2910 C   0  0  0  0  0  0  0  0  0  0  0  0
   26.0768    1.2489    4.9660 C   0  0  0  0  0  0  0  0  0  0  0  0
   22.4136   -1.4236    6.0113 C   0  0  0  0  0  0  0  0  0  0  0  0
   16.2475   -0.8871    4.0491 C   0  0  0  0  0  0  0  0  0  0  0  0
   26.1219   -0.2843    5.8608 S   0  0  0  0  0  0  0  0  0  0  0  0
   16.5381    0.3076    4.7883 C   0  0  0  0  0  0  0  0  0  0  0  0
   26.8922   -1.2999    5.1117 O   0  0  0  0  0  0  0  0  0  0  0  0
   26.7897   -0.0804    7.1795 O   0  0  0  0  0  0  0  0  0  0  0  0
   20.6249   -2.7125    4.8110 C   0  0  0  0  0  0  0  0  0  0  0  0
   18.4287   -1.7580    4.4518 C   0  0  0  0  0  0  0  0  0  0  0  0
   15.5194    1.4306    4.9344 C   0  0  0  0  0  0  0  0  0  0  0  0
   23.4178   -0.6960    5.4333 C   0  0  0  0  0  0  0  0  0  0  0  0
   17.8578    0.4474    5.3564 C   0  0  0  0  0  0  0  0  0  0  0  0
   17.1807    2.7680    6.2601 C   0  0  0  0  0  0  0  0  0  0  0  0
   18.8166   -0.5904    5.1516 C   0  0  0  0  0  0  0  0  0  0  0  0
   19.3221   -2.8093    4.2820 C   0  0  0  0  0  0  0  0  0  0  0  0
   22.9854   -2.0440    7.1059 C   0  0  0  0  0  0  0  0  0  0  0  0
   15.7306    2.2506    6.2152 C   0  0  0  0  0  0  0  0  0  0  0  0
   21.0312   -1.5495    5.4780 C   0  0  0  0  0  0  0  0  0  0  0  0
   24.2498   -1.7091    7.1908 O   0  0  0  0  0  0  0  0  0  0  0  0
  1  9  1  0
  1 16  2  0
  1 24  1  0
  2  8  1  0
  3 19  2  0
  3 23  1  0
  4  8  2  0
  4 14  1  0
  5 17  1  0
  5 18  1  0
  6  9  1  0
  7 16  1  0
  7 21  2  0
  7 23  1  0
  8 10  1  0
  9 11  2  0
  9 12  2  0
 10 15  1  0
 10 17  2  0
 13 20  1  0
 13 23  2  0
 14 19  1  0
 14 20  2  0
 15 22  1  0
 17 19  1  0
 18 22  1  0
 21 24  1  0
M  END
>  <sigma_x>  (7) 
0.8727664947509766,0.8757538795471191,0.8758071660995483,0.8769570589065552,0.8772161602973938,0.8829569220542908,0.8788660764694214,0.8769645094871521,0.8808845281600952,0.8746026158332825,0.8829761743545532,0.8811474442481995,0.8778712749481201,0.8751155138015747,0.8763298988342285,0.8758084774017334,0.8736233711242676,0.8783918619155884,0.875461220741272,0.8762296438217163,0.8784945011138916,0.879618227481842,0.8729815483093262,0.881747841835022

>  <entropy_h>  (7) 
0.6266990303993225,0.7746891379356384,0.5806974768638611,0.6205106973648071,0.3507702052593231,0.5584957599639893,0.5747060179710388,0.6827239990234375,0.5102806091308594,0.4197448492050171,0.523866593837738,0.6298251152038574,0.472262442111969,0.5061937570571899,0.42798078060150146,0.6420695185661316,0.4145178496837616,0.4011248052120209,0.5143864750862122,0.6239423155784607,0.6986876130104065,0.4707152843475342,0.38060200214385986,0.89408940076828

$$$$

     RDKit          3D

 30 33  0  0  0  0  0  0  0  0999 V2000
   26.6212   -0.1292    5.0576 C   0  0  0  0  0  0  0  0  0  0  0  0
   27.6739    0.5578    3.0038 C   0  0  0  0  0  0  0  0  0  0  0  0
   24.5674   -2.0903    5.9608 C   0  0  0  0  0  0  0  0  0  0  0  0
   24.6934   -3.1592    8.1382 O   0  0  0  0  0  0  0  0  0  0  0  0
   16.9482   -1.5892    4.5549 C   0  0  0  0  0  0  0  0  0  0  0  0
   27.2326   -2.4658    6.1176 O   0  0  0  0  0  0  0  0  0  0  0  0
   27.3167    1.8736    3.2480 C   0  0  0  0  0  0  0  0  0  0  0  0
   26.2711   -0.7929    7.6038 O   0  0  0  0  0  0  0  0  0  0  0  0
   27.3223   -0.4424    3.8969 C   0  0  0  0  0  0  0  0  0  0  0  0
   17.5801   -1.3310    7.7290 O   0  0  0  0  0  0  0  0  0  0  0  0
   26.5974    2.1899    4.4025 C   0  0  0  0  0  0  0  0  0  0  0  0
   15.3135    0.5368    3.8145 C   0  0  0  0  0  0  0  0  0  0  0  0
   23.6837   -1.2081    5.2513 O   0  0  0  0  0  0  0  0  0  0  0  0
   23.9925   -2.5549    7.2752 C   0  0  0  0  0  0  0  0  0  0  0  0
   16.1156    0.6445    4.9321 C   0  0  0  0  0  0  0  0  0  0  0  0
   22.6089   -2.3757    7.5233 N   0  0  0  0  0  0  0  0  0  0  0  0
   26.2354    1.1870    5.3014 C   0  0  0  0  0  0  0  0  0  0  0  0
   19.6397   -0.5754    6.2193 C   0  0  0  0  0  0  0  0  0  0  0  0
   15.3150   -0.6317    3.0657 C   0  0  0  0  0  0  0  0  0  0  0  0
   20.4561   -1.3619    7.0215 C   0  0  0  0  0  0  0  0  0  0  0  0
   26.1933   -1.3522    6.2377 S   0  0  0  0  0  0  0  0  0  0  0  0
   21.5356   -0.1603    4.7377 C   0  0  0  0  0  0  0  0  0  0  0  0
   20.1816    0.0377    5.0764 C   0  0  0  0  0  0  0  0  0  0  0  0
   17.9879   -0.2803    6.7107 S   0  0  0  0  0  0  0  0  0  0  0  0
   16.1407   -2.9361    2.6683 N   0  0  0  0  0  0  0  0  0  0  0  0
   21.7884   -1.5861    6.6814 C   0  0  0  0  0  0  0  0  0  0  0  0
   16.1128   -1.7122    3.4433 C   0  0  0  0  0  0  0  0  0  0  0  0
   22.3299   -0.9798    5.5457 C   0  0  0  0  0  0  0  0  0  0  0  0
   16.9522   -0.4243    5.3115 C   0  0  0  0  0  0  0  0  0  0  0  0
   17.8588    1.0480    7.3224 O   0  0  0  0  0  0  0  0  0  0  0  0
  1  9  2  0
  1 17  1  0
  1 21  1  0
  2  7  2  0
  2  9  1  0
  3 13  1  0
  3 14  1  0
  3 21  1  0
  4 14  2  0
  5 27  2  0
  5 29  1  0
  6 21  2  0
  7 11  1  0
  8 21  2  0
 10 24  2  0
 11 17  2  0
 12 15  1  0
 12 19  2  0
 13 28  1  0
 14 16  1  0
 15 29  2  0
 16 26  1  0
 18 20  1  0
 18 23  2  0
 18 24  1  0
 19 27  1  0
 20 26  2  0
 22 23  1  0
 22 28  2  0
 24 29  1  0
 24 30  2  0
 25 27  1  0
 26 28  1  0
M  END
>  <sigma_x>  (8) 
0.8757166862487793,0.8805718421936035,0.8772242665290833,0.8833787441253662,0.8690903186798096,0.881314754486084,0.8777017593383789,0.8809707760810852,0.8775508403778076,0.8728176951408386,0.8760104775428772,0.8678891062736511,0.8798051476478577,0.8762901425361633,0.8672717213630676,0.8768841028213501,0.8767569065093994,0.8718624114990234,0.8650780916213989,0.8720296621322632,0.8747747540473938,0.8726443648338318,0.8744205236434937,0.8661386370658875,0.8768734335899353,0.8730877637863159,0.8689377903938293,0.8732407689094543,0.8673872351646423,0.8744283318519592

>  <entropy_h>  (8) 
0.47246384620666504,0.582360029220581,0.6759952306747437,0.5763746500015259,0.39035335183143616,0.503682553768158,0.48856863379478455,0.541215717792511,0.44523781538009644,0.47219666838645935,0.4250602126121521,0.33237406611442566,0.6585054993629456,0.5180891752243042,0.33717769384384155,0.7414892911911011,0.4396273195743561,0.45378342270851135,0.2847263813018799,0.439967542886734,0.4971494972705841,0.5149367451667786,0.4502315819263458,0.43954119086265564,1.0362753868103027,0.4403487741947174,0.4722576141357422,0.4888053834438324,0.3944805860519409,0.46751531958580017

$$$$

     RDKit          3D

 40 45  0  0  0  0  0  0  0  0999 V2000
   28.1746    1.5556    3.3910 F   0  0  0  0  0  0  0  0  0  0  0  0
   19.8327   -2.8511    4.5353 O   0  0  0  0  0  0  0  0  0  0  0  0
   19.6693    0.4546    4.9649 C   0  0  0  0  0  0  0  0  0  0  0  0
   23.7359   -1.1758    6.0184 C   0  0  0  0  0  0  0  0  0  0  0  0
   25.6732   -1.6667    7.4502 N   0  0  0  0  0  0  0  0  0  0  0  0
   16.1723    2.5869    6.6982 F   0  0  0  0  0  0  0  0  0  0  0  0
   20.4525   -0.6470    4.2615 C   0  0  0  0  0  0  0  0  0  0  0  0
   16.9528   -2.5263    4.7126 C   0  0  0  0  0  0  0  0  0  0  0  0
   21.6000   -2.2874    6.4486 C   0  0  0  0  0  0  0  0  0  0  0  0
   24.2865   -1.8340    7.1248 C   0  0  0  0  0  0  0  0  0  0  0  0
   21.8122   -0.6173    4.6507 O   0  0  0  0  0  0  0  0  0  0  0  0
   20.5519    1.4856    5.2278 F   0  0  0  0  0  0  0  0  0  0  0  0
   26.0634    0.9038    3.0239 F   0  0  0  0  0  0  0  0  0  0  0  0
   26.9487    1.4099    3.9511 C   0  0  0  0  0  0  0  0  0  0  0  0
   27.7864   -0.6502    6.8159 N   0  0  0  0  0  0  0  0  0  0  0  0
   24.5721   -0.2185    5.1903 C   0  0  0  0  0  0  0  0  0  0  0  0
   18.3714    2.8542    6.8012 F   0  0  0  0  0  0  0  0  0  0  0  0
   18.9303    0.0680    6.2935 C   0  0  0  0  0  0  0  0  0  0  0  0
   19.6823    0.4930    7.4031 F   0  0  0  0  0  0  0  0  0  0  0  0
   15.7752    0.0333    4.4926 C   0  0  0  0  0  0  0  0  0  0  0  0
   17.3777   -1.4718    5.5209 C   0  0  0  0  0  0  0  0  0  0  0  0
   26.4711   -0.8215    6.6445 C   0  0  0  0  0  0  0  0  0  0  0  0
   27.0048    0.5107    5.1406 C   0  0  0  0  0  0  0  0  0  0  0  0
   15.3583   -1.0174    3.6557 C   0  0  0  0  0  0  0  0  0  0  0  0
   18.5765   -1.4173    6.4163 C   0  0  0  0  0  0  0  0  0  0  0  0
   17.5170    0.6680    6.3308 C   0  0  0  0  0  0  0  0  0  0  0  0
   17.3803    2.5070    4.8325 F   0  0  0  0  0  0  0  0  0  0  0  0
   22.1943   -2.9601    7.5392 C   0  0  0  0  0  0  0  0  0  0  0  0
   26.4883    2.6407    4.3582 F   0  0  0  0  0  0  0  0  0  0  0  0
   22.3761   -1.3812    5.6927 C   0  0  0  0  0  0  0  0  0  0  0  0
   23.5198   -2.7384    7.8591 C   0  0  0  0  0  0  0  0  0  0  0  0
   19.8827   -2.6378    6.0284 S   0  0  0  0  0  0  0  0  0  0  0  0
   25.9574   -0.1287    5.6539 N   0  0  0  0  0  0  0  0  0  0  0  0
   28.1280    0.2229    5.8577 C   0  0  0  0  0  0  0  0  0  0  0  0
   17.3678    2.1799    6.1631 C   0  0  0  0  0  0  0  0  0  0  0  0
   16.7689   -0.2359    5.4380 C   0  0  0  0  0  0  0  0  0  0  0  0
   18.8065    1.0226    4.0198 F   0  0  0  0  0  0  0  0  0  0  0  0
   15.9427   -2.2915    3.7540 C   0  0  0  0  0  0  0  0  0  0  0  0
   19.4989   -3.8455    6.8233 O   0  0  0  0  0  0  0  0  0  0  0  0
   29.4590    0.6819    5.6235 N   0  0  0  0  0  0  0  0  0  0  0  0
  1 14  1  0
  2 32  2  0
  3  7  1  0
  3 12  1  0
  3 18  1  0
  3 37  1  0
  4 10  1  0
  4 16  1  0
  4 30  2  0
  5 10  1  0
  5 22  1  0
  6 35  1  0
  7 11  1  0
  8 21  2  0
  8 38  1  0
  9 28  2  0
  9 30  1  0
  9 32  1  0
 10 31  2  0
 11 30  1  0
 13 14  1  0
 14 23  1  0
 14 29  1  0
 15 22  2  0
 15 34  1  0
 16 33  1  0
 17 35  1  0
 18 19  1  0
 18 25  1  0
 18 26  1  0
 20 24  1  0
 20 36  2  0
 21 25  1  0
 21 36  1  0
 22 33  1  0
 23 33  1  0
 23 34  2  0
 24 38  2  0
 25 32  1  0
 26 35  1  0
 26 36  1  0
 27 35  1  0
 28 31  1  0
 32 39  2  0
 34 40  1  0
M  END
>  <sigma_x>  (9) 
0.8872507810592651,0.8859645128250122,0.8829399943351746,0.8798149824142456,0.8824528455734253,0.8908776640892029,0.8908153176307678,0.8815619349479675,0.8822623491287231,0.8804298043251038,0.8871018290519714,0.8868996500968933,0.8885928392410278,0.8825349807739258,0.8783592581748962,0.8837264180183411,0.8892212510108948,0.8820568919181824,0.8923270106315613,0.8829314708709717,0.8848139047622681,0.8791011571884155,0.880071222782135,0.8779630661010742,0.8891364932060242,0.8846049308776855,0.8847001194953918,0.8825904726982117,0.8915133476257324,0.8816034197807312,0.8799527287483215,0.8809073567390442,0.8785300850868225,0.8804991245269775,0.8835058212280273,0.8789644241333008,0.8932182192802429,0.8801566958427429,0.8920026421546936,0.8856008648872375

>  <entropy_h>  (9) 
0.6535784006118774,0.5977709293365479,0.5139824151992798,0.48435261845588684,0.777350902557373,0.6208310723304749,0.6300162076950073,0.44821351766586304,0.5415923595428467,0.532195508480072,0.851212203502655,0.4094500243663788,0.5655192732810974,0.4564517140388489,0.5697072744369507,0.5381894111633301,0.55025315284729,0.5593367218971252,0.5454725623130798,0.5013827085494995,0.4991128146648407,0.4408057630062103,0.5157084465026855,0.39921241998672485,0.7601941227912903,0.5142256021499634,0.39177757501602173,0.5416125655174255,0.594336211681366,0.5486170649528503,0.48330673575401306,0.572641909122467,0.6528010368347168,0.4759005904197693,0.6491769552230835,0.42063766717910767,0.5717546343803406,0.3933011591434479,0.7096328139305115,0.7146478295326233

$$$$

     RDKit          3D

 26 28  0  0  0  0  0  0  0  0999 V2000
   21.9029   -2.4735    7.1288 C   0  0  0  0  0  0  0  0  0  0  0  0
   21.3377   -1.0767    5.2460 C   0  0  0  0  0  0  0  0  0  0  0  0
   25.0194   -0.6864    6.0148 C   0  0  0  0  0  0  0  0  0  0  0  0
   16.8611    2.3625    5.9349 C   0  0  0  0  0  0  0  0  0  0  0  0
   17.9664    1.8865    6.6357 C   0  0  0  0  0  0  0  0  0  0  0  0
   17.7757   -2.2485    4.0380 C   0  0  0  0  0  0  0  0  0  0  0  0
   19.2813   -2.5504    6.3267 S   0  0  0  0  0  0  0  0  0  0  0  0
   19.2745   -3.9697    5.8567 O   0  0  0  0  0  0  0  0  0  0  0  0
   16.3372   -1.9341    3.7114 C   0  0  0  0  0  0  0  0  0  0  0  0
   17.7279   -0.2770    5.5906 C   0  0  0  0  0  0  0  0  0  0  0  0
   20.9458   -1.9969    6.2190 C   0  0  0  0  0  0  0  0  0  0  0  0
   23.2096   -2.0183    7.0894 C   0  0  0  0  0  0  0  0  0  0  0  0
   23.6008   -1.1122    6.0878 C   0  0  0  0  0  0  0  0  0  0  0  0
   22.6532   -0.6366    5.1885 C   0  0  0  0  0  0  0  0  0  0  0  0
   27.1812    0.8171    3.9610 C   0  0  0  0  0  0  0  0  0  0  0  0
   15.5376   -2.8044    3.2494 O   0  0  0  0  0  0  0  0  0  0  0  0
   26.7637    1.0163    5.4268 C   0  0  0  0  0  0  0  0  0  0  0  0
   25.9158   -1.4723    6.3198 O   0  0  0  0  0  0  0  0  0  0  0  0
   16.6245    0.2097    4.8936 C   0  0  0  0  0  0  0  0  0  0  0  0
   27.1588   -0.5419    3.6659 F   0  0  0  0  0  0  0  0  0  0  0  0
   15.8911   -0.6196    4.0015 N   0  0  0  0  0  0  0  0  0  0  0  0
   18.8668   -2.5034    7.7276 O   0  0  0  0  0  0  0  0  0  0  0  0
   25.3571    0.6305    5.5915 N   0  0  0  0  0  0  0  0  0  0  0  0
   16.1891    1.5242    5.0642 C   0  0  0  0  0  0  0  0  0  0  0  0
   18.1444   -1.6272    5.3329 N   0  0  0  0  0  0  0  0  0  0  0  0
   18.4162    0.5750    6.4493 C   0  0  0  0  0  0  0  0  0  0  0  0
  1 11  2  0
  1 12  1  0
  2 11  1  0
  2 14  2  0
  3 13  1  0
  3 18  2  0
  3 23  1  0
  4  5  2  0
  4 24  1  0
  5 26  1  0
  6  9  1  0
  6 25  1  0
  7  8  2  0
  7 11  1  0
  7 22  2  0
  7 25  1  0
  9 16  2  0
  9 21  1  0
 10 19  1  0
 10 25  1  0
 10 26  2  0
 12 13  2  0
 13 14  1  0
 15 17  1  0
 15 20  1  0
 17 23  1  0
 19 21  1  0
 19 24  2  0
M  END
>  <sigma_x>  (10) 
0.8716822862625122,0.871742308139801,0.8727877140045166,0.877454400062561,0.8763192296028137,0.8828129768371582,0.8718218207359314,0.8726593852043152,0.8778318762779236,0.874826192855835,0.8707737326622009,0.8719745874404907,0.8726562857627869,0.8726992607116699,0.8803770542144775,0.8785736560821533,0.8796990513801575,0.8813592791557312,0.874920666217804,0.8914340734481812,0.8768814206123352,0.875590443611145,0.8799985647201538,0.8779544234275818,0.8759512901306152,0.8704538941383362

>  <entropy_h>  (10) 
0.3888638913631439,0.45849862694740295,0.4670681357383728,0.3690412640571594,0.5085573792457581,0.5478760004043579,0.5247549414634705,0.5170429348945618,0.4470127820968628,0.4820736050605774,0.44583752751350403,0.4095545709133148,0.40837007761001587,0.4225204586982727,0.4620365798473358,0.5274124145507812,0.4622524082660675,0.6681526899337769,0.369671493768692,0.7024766206741333,0.5229165554046631,0.4611789286136627,0.5775963068008423,0.6107341051101685,0.5852102041244507,0.30283841490745544

$$$$
