
     RDKit          3D

 32 36  0  0  0  0  0  0  0  0999 V2000
   16.1827    1.8071    4.9990 C   0  0  0  0  0  0  0  0  0  0  0  0
   17.3172    2.5047    5.8135 C   0  0  0  0  0  0  0  0  0  0  0  0
   18.5686    1.6407    6.0769 C   0  0  0  0  0  0  0  0  0  0  0  0
   18.1979    0.1637    6.4314 C   0  0  0  0  0  0  0  0  0  0  0  0
   16.4859    0.3605    4.5963 C   0  0  0  0  0  0  0  0  0  0  0  0
   17.4883   -0.4354    5.1746 C   0  0  0  0  0  0  0  0  0  0  0  0
   17.5516   -1.7331    4.5241 C   0  0  0  0  0  0  0  0  0  0  0  0
   16.5169   -1.9664    3.5756 C   0  0  0  0  0  0  0  0  0  0  0  0
   15.6403   -0.4977    3.4473 S   0  0  0  0  0  0  0  0  0  0  0  0
   17.2487    0.1567    7.6579 C   0  0  0  0  0  0  0  0  0  0  0  0
   19.4368   -0.6295    6.8032 C   0  0  0  0  0  0  0  0  0  0  0  0
   19.4410   -1.4323    7.8570 O   0  0  0  0  0  0  0  0  0  0  0  0
   20.6365   -1.9423    8.0595 N   0  0  0  0  0  0  0  0  0  0  0  0
   21.3531   -1.3504    7.0583 C   0  0  0  0  0  0  0  0  0  0  0  0
   20.6470   -0.5468    6.2316 N   0  0  0  0  0  0  0  0  0  0  0  0
   16.1833   -3.1071    2.8639 N   0  0  0  0  0  0  0  0  0  0  0  0
   22.7895   -1.6386    6.9117 C   0  0  0  0  0  0  0  0  0  0  0  0
   23.5464   -0.8463    6.1022 N   0  0  0  0  0  0  0  0  0  0  0  0
   24.8911   -1.0350    5.9374 C   0  0  0  0  0  0  0  0  0  0  0  0
   25.5095   -2.0976    6.5893 C   0  0  0  0  0  0  0  0  0  0  0  0
   24.7645   -2.9450    7.4093 C   0  0  0  0  0  0  0  0  0  0  0  0
   23.4054   -2.7183    7.5674 C   0  0  0  0  0  0  0  0  0  0  0  0
   18.4847   -2.7976    4.8064 C   0  0  0  0  0  0  0  0  0  0  0  0
   19.2037   -3.6620    4.9691 N   0  0  0  0  0  0  0  0  0  0  0  0
   25.6366   -0.1646    5.0717 N   0  0  0  0  0  0  0  0  0  0  0  0
   26.0441    1.1819    5.5340 C   0  0  0  0  0  0  0  0  0  0  0  0
   26.4669    2.0880    4.3548 C   0  0  0  0  0  0  0  0  0  0  0  0
   27.4531    1.4243    3.4796 N   0  0  0  0  0  0  0  0  0  0  0  0
   26.8423    0.1812    2.9719 C   0  0  0  0  0  0  0  0  0  0  0  0
   26.5873   -0.7826    4.1296 C   0  0  0  0  0  0  0  0  0  0  0  0
   27.9227    2.3083    2.4031 C   0  0  0  0  0  0  0  0  0  0  0  0
   27.1801    1.1083    6.5682 C   0  0  0  0  0  0  0  0  0  0  0  0
  1  2  1  0
  1  5  1  0
  2  3  1  0
  3  4  1  0
  4  6  1  0
  4 10  1  0
  4 11  1  0
  5  6  2  0
  5  9  1  0
  6  7  1  0
  7  8  2  0
  7 23  1  0
  8  9  1  0
  8 16  1  0
 11 12  1  0
 11 15  2  0
 12 13  1  0
 13 14  2  0
 14 15  1  0
 14 17  1  0
 17 18  2  0
 17 22  1  0
 18 19  1  0
 19 20  2  0
 19 25  1  0
 20 21  1  0
 21 22  2  0
 23 24  3  0
 25 26  1  0
 25 30  1  0
 26 27  1  0
 26 32  1  0
 27 28  1  0
 28 29  1  0
 28 31  1  0
 29 30  1  0
M  END
>  <sigma_x>  (1) 
0.8413419127464294,0.8441668152809143,0.839763343334198,0.833491861820221,0.8344568014144897,0.8341379761695862,0.8329917788505554,0.8346948027610779,0.8380987644195557,0.8427366614341736,0.835832953453064,0.8482599258422852,0.8443735241889954,0.8339982032775879,0.8365107774734497,0.8397191762924194,0.833731472492218,0.8332885503768921,0.8339173793792725,0.8374761343002319,0.8387106657028198,0.8363484144210815,0.8362725377082825,0.8443722724914551,0.8399953842163086,0.8492836952209473,0.8542131781578064,0.8529871106147766,0.8582994341850281,0.8586344122886658,0.8604678511619568,0.8794921636581421

>  <entropy_h>  (1) 
0.0,0.0,0.0,0.0,0.0,0.0,0.0,0.0,0.0,0.0,0.0,0.0,0.0,0.0,0.0,0.0,0.0,0.0,0.0,0.0,0.0,0.0,0.0,0.0,0.0,0.0,0.0,0.0,0.0,0.0,0.0,0.0

$$$$

     RDKit          3D

 32 36  0  0  0  0  0  0  0  0999 V2000
   15.8606    1.9042    4.9752 C   0  0  0  0  0  0  0  0  0  0  0  0
   16.4491    2.2890    6.3489 C   0  0  0  0  0  0  0  0  0  0  0  0
   17.8879    1.7654    6.5320 C   0  0  0  0  0  0  0  0  0  0  0  0
   18.0707    0.2268    6.3401 C   0  0  0  0  0  0  0  0  0  0  0  0
   16.1917    0.4929    4.6270 C   0  0  0  0  0  0  0  0  0  0  0  0
   17.1044   -0.3395    5.2715 C   0  0  0  0  0  0  0  0  0  0  0  0
   17.1744   -1.6431    4.6960 C   0  0  0  0  0  0  0  0  0  0  0  0
   16.3092   -1.7873    3.6035 C   0  0  0  0  0  0  0  0  0  0  0  0
   15.4821   -0.3449    3.3599 S   0  0  0  0  0  0  0  0  0  0  0  0
   17.7864   -0.5204    7.6754 C   0  0  0  0  0  0  0  0  0  0  0  0
   19.5005   -0.0221    5.8713 C   0  0  0  0  0  0  0  0  0  0  0  0
   19.9585    0.1591    4.6500 O   0  0  0  0  0  0  0  0  0  0  0  0
   21.1998   -0.2293    4.5595 N   0  0  0  0  0  0  0  0  0  0  0  0
   21.4993   -0.6684    5.7783 C   0  0  0  0  0  0  0  0  0  0  0  0
   20.4674   -0.5692    6.6399 N   0  0  0  0  0  0  0  0  0  0  0  0
   16.1708   -2.9428    2.7778 N   0  0  0  0  0  0  0  0  0  0  0  0
   22.8316   -1.2026    6.1492 C   0  0  0  0  0  0  0  0  0  0  0  0
   23.9451   -0.7035    5.5617 N   0  0  0  0  0  0  0  0  0  0  0  0
   25.1942   -1.1516    5.8740 C   0  0  0  0  0  0  0  0  0  0  0  0
   25.3515   -2.1489    6.8405 C   0  0  0  0  0  0  0  0  0  0  0  0
   24.2312   -2.6688    7.4682 C   0  0  0  0  0  0  0  0  0  0  0  0
   22.9674   -2.1943    7.1348 C   0  0  0  0  0  0  0  0  0  0  0  0
   18.1033   -2.6774    5.1080 C   0  0  0  0  0  0  0  0  0  0  0  0
   18.8591   -3.4635    5.4652 N   0  0  0  0  0  0  0  0  0  0  0  0
   26.3380   -0.5918    5.1951 N   0  0  0  0  0  0  0  0  0  0  0  0
   26.1559    0.5056    4.2075 C   0  0  0  0  0  0  0  0  0  0  0  0
   27.2125    0.4799    3.0600 C   0  0  0  0  0  0  0  0  0  0  0  0
   28.5857    0.2781    3.5540 N   0  0  0  0  0  0  0  0  0  0  0  0
   28.6421   -1.0134    4.2603 C   0  0  0  0  0  0  0  0  0  0  0  0
   27.7414   -0.9456    5.5262 C   0  0  0  0  0  0  0  0  0  0  0  0
   29.4887    0.2989    2.3901 C   0  0  0  0  0  0  0  0  0  0  0  0
   26.1686    1.8561    4.9500 C   0  0  0  0  0  0  0  0  0  0  0  0
  1  2  1  0
  1  5  1  0
  2  3  1  0
  3  4  1  0
  4  6  1  0
  4 10  1  0
  4 11  1  0
  5  6  2  0
  5  9  1  0
  6  7  1  0
  7  8  2  0
  7 23  1  0
  8  9  1  0
  8 16  1  0
 11 12  1  0
 11 15  2  0
 12 13  1  0
 13 14  2  0
 14 15  1  0
 14 17  1  0
 17 18  2  0
 17 22  1  0
 18 19  1  0
 19 20  2  0
 19 25  1  0
 20 21  1  0
 21 22  2  0
 23 24  3  0
 25 26  1  0
 25 30  1  0
 26 27  1  0
 26 32  1  0
 27 28  1  0
 28 29  1  0
 28 31  1  0
 29 30  1  0
M  END
>  <sigma_x>  (2) 
0.8402666449546814,0.8421834707260132,0.8382291197776794,0.83247309923172,0.833141565322876,0.8332883715629578,0.8326622247695923,0.8336028456687927,0.8363342881202698,0.8410982489585876,0.8345934748649597,0.8420195579528809,0.8407642245292664,0.8324785828590393,0.8353278040885925,0.8400897979736328,0.8322179317474365,0.8323791027069092,0.8324486613273621,0.835482656955719,0.8354829549789429,0.8334261775016785,0.8371027708053589,0.8484163284301758,0.8360889554023743,0.8430885076522827,0.8492094278335571,0.8554720282554626,0.8547261357307434,0.8484553694725037,0.8632532358169556,0.8506996035575867

>  <entropy_h>  (2) 
0.0,0.0,0.0,0.0,0.0,0.0,0.0,0.0,0.0,0.0,0.0,0.0,0.0,0.0,0.0,0.0,0.0,0.0,0.0,0.0,0.0,0.0,0.0,0.0,0.0,0.0,0.0,0.0,0.0,0.0,0.0,0.0

$$$$

     RDKit          3D

 32 36  0  0  0  0  0  0  0  0999 V2000
   16.8502    2.0675    4.8472 C   0  0  0  0  0  0  0  0  0  0  0  0
   17.5221    2.3257    6.2077 C   0  0  0  0  0  0  0  0  0  0  0  0
   18.7420    1.4026    6.4105 C   0  0  0  0  0  0  0  0  0  0  0  0
   18.3377   -0.0897    6.4911 C   0  0  0  0  0  0  0  0  0  0  0  0
   16.8932    0.6228    4.4816 C   0  0  0  0  0  0  0  0  0  0  0  0
   17.5861   -0.3968    5.1728 C   0  0  0  0  0  0  0  0  0  0  0  0
   17.4277   -1.6160    4.5025 C   0  0  0  0  0  0  0  0  0  0  0  0
   16.6361   -1.5423    3.3769 C   0  0  0  0  0  0  0  0  0  0  0  0
   16.1290    0.0297    3.0956 S   0  0  0  0  0  0  0  0  0  0  0  0
   17.4063   -0.2751    7.7335 C   0  0  0  0  0  0  0  0  0  0  0  0
   19.5710   -0.9406    6.7617 C   0  0  0  0  0  0  0  0  0  0  0  0
   19.5663   -1.8884    7.6850 O   0  0  0  0  0  0  0  0  0  0  0  0
   20.7968   -2.3487    7.8573 N   0  0  0  0  0  0  0  0  0  0  0  0
   21.5533   -1.6269    7.0084 C   0  0  0  0  0  0  0  0  0  0  0  0
   20.8326   -0.7352    6.3157 N   0  0  0  0  0  0  0  0  0  0  0  0
   16.2592   -2.6249    2.5307 N   0  0  0  0  0  0  0  0  0  0  0  0
   23.0446   -1.8034    6.9346 C   0  0  0  0  0  0  0  0  0  0  0  0
   23.7869   -0.9710    6.1541 N   0  0  0  0  0  0  0  0  0  0  0  0
   25.1425   -1.1082    6.0138 C   0  0  0  0  0  0  0  0  0  0  0  0
   25.7950   -2.1532    6.6968 C   0  0  0  0  0  0  0  0  0  0  0  0
   25.0430   -2.9996    7.4868 C   0  0  0  0  0  0  0  0  0  0  0  0
   23.6791   -2.8415    7.6255 C   0  0  0  0  0  0  0  0  0  0  0  0
   18.1180   -2.8170    4.9142 C   0  0  0  0  0  0  0  0  0  0  0  0
   18.7026   -3.7545    5.2014 N   0  0  0  0  0  0  0  0  0  0  0  0
   25.8744   -0.2175    5.1283 N   0  0  0  0  0  0  0  0  0  0  0  0
   26.8738   -0.7589    4.1465 C   0  0  0  0  0  0  0  0  0  0  0  0
   26.8690    0.1381    2.8626 C   0  0  0  0  0  0  0  0  0  0  0  0
   27.0687    1.6022    3.1165 N   0  0  0  0  0  0  0  0  0  0  0  0
   26.7051    2.0340    4.4855 C   0  0  0  0  0  0  0  0  0  0  0  0
   25.5297    1.2169    5.0535 C   0  0  0  0  0  0  0  0  0  0  0  0
   28.4871    1.9762    2.8417 C   0  0  0  0  0  0  0  0  0  0  0  0
   28.2697   -0.8573    4.7656 C   0  0  0  0  0  0  0  0  0  0  0  0
  1  2  1  0
  1  5  1  0
  2  3  1  0
  3  4  1  0
  4  6  1  0
  4 10  1  0
  4 11  1  0
  5  6  2  0
  5  9  1  0
  6  7  1  0
  7  8  2  0
  7 23  1  0
  8  9  1  0
  8 16  1  0
 11 12  1  0
 11 15  2  0
 12 13  1  0
 13 14  2  0
 14 15  1  0
 14 17  1  0
 17 18  2  0
 17 22  1  0
 18 19  1  0
 19 20  2  0
 19 25  1  0
 20 21  1  0
 21 22  2  0
 23 24  3  0
 25 26  1  0
 25 30  1  0
 26 27  1  0
 26 32  1  0
 27 28  1  0
 28 29  1  0
 28 31  1  0
 29 30  1  0
M  END
>  <sigma_x>  (3) 
0.8413600921630859,0.8439245223999023,0.8401156067848206,0.8334541320800781,0.8344130516052246,0.8337393999099731,0.8326733112335205,0.8342124223709106,0.8382205367088318,0.8440507650375366,0.8362433314323425,0.8483415842056274,0.8442311882972717,0.8339533805847168,0.836090087890625,0.8393464088439941,0.8334318399429321,0.832414984703064,0.8334854245185852,0.8374099135398865,0.8383738398551941,0.8355647325515747,0.8362008333206177,0.8438053727149963,0.8379445672035217,0.8488041758537292,0.8520704507827759,0.849959135055542,0.8570544123649597,0.8546121120452881,0.8577255606651306,0.8733640909194946

>  <entropy_h>  (3) 
0.0,0.0,0.0,0.0,0.0,0.0,0.0,0.0,0.0,0.0,0.0,0.0,0.0,0.0,0.0,0.0,0.0,0.0,0.0,0.0,0.0,0.0,0.0,0.0,0.0,0.0,0.0,0.0,0.0,0.0,0.0,0.0

$$$$

     RDKit          3D

 32 36  0  0  0  0  0  0  0  0999 V2000
   16.8059    2.0600    4.8549 C   0  0  0  0  0  0  0  0  0  0  0  0
   17.7931    2.5493    5.9736 C   0  0  0  0  0  0  0  0  0  0  0  0
   19.0194    1.5922    6.1501 C   0  0  0  0  0  0  0  0  0  0  0  0
   18.5497    0.1072    6.3715 C   0  0  0  0  0  0  0  0  0  0  0  0
   16.9086    0.6011    4.4998 C   0  0  0  0  0  0  0  0  0  0  0  0
   17.7582   -0.3330    5.1203 C   0  0  0  0  0  0  0  0  0  0  0  0
   17.6381   -1.6124    4.5286 C   0  0  0  0  0  0  0  0  0  0  0  0
   16.7144   -1.6580    3.4885 C   0  0  0  0  0  0  0  0  0  0  0  0
   16.0268   -0.1346    3.2681 S   0  0  0  0  0  0  0  0  0  0  0  0
   17.6237    0.0451    7.6219 C   0  0  0  0  0  0  0  0  0  0  0  0
   19.7585   -0.8177    6.6217 C   0  0  0  0  0  0  0  0  0  0  0  0
   19.7166   -1.7474    7.5613 O   0  0  0  0  0  0  0  0  0  0  0  0
   20.9083   -2.2242    7.7657 N   0  0  0  0  0  0  0  0  0  0  0  0
   21.7251   -1.5379    6.9130 C   0  0  0  0  0  0  0  0  0  0  0  0
   21.0237   -0.6326    6.1737 N   0  0  0  0  0  0  0  0  0  0  0  0
   16.3316   -2.8216    2.7045 N   0  0  0  0  0  0  0  0  0  0  0  0
   23.2023   -1.8158    6.8121 C   0  0  0  0  0  0  0  0  0  0  0  0
   24.0525   -1.0972    6.0147 N   0  0  0  0  0  0  0  0  0  0  0  0
   25.4031   -1.3694    5.9675 C   0  0  0  0  0  0  0  0  0  0  0  0
   25.9275   -2.4102    6.7595 C   0  0  0  0  0  0  0  0  0  0  0  0
   25.0835   -3.1352    7.5919 C   0  0  0  0  0  0  0  0  0  0  0  0
   23.7208   -2.8485    7.6319 C   0  0  0  0  0  0  0  0  0  0  0  0
   18.4282   -2.7800    4.8770 C   0  0  0  0  0  0  0  0  0  0  0  0
   19.0582   -3.7082    5.1539 N   0  0  0  0  0  0  0  0  0  0  0  0
   26.2726   -0.6081    5.0744 N   0  0  0  0  0  0  0  0  0  0  0  0
   25.8437    0.5124    4.2041 C   0  0  0  0  0  0  0  0  0  0  0  0
   26.7239    0.6059    2.9129 C   0  0  0  0  0  0  0  0  0  0  0  0
   27.2932   -0.7115    2.5829 N   0  0  0  0  0  0  0  0  0  0  0  0
   28.2763   -1.1246    3.6298 C   0  0  0  0  0  0  0  0  0  0  0  0
   27.7380   -0.8869    5.0902 C   0  0  0  0  0  0  0  0  0  0  0  0
   27.9268   -0.6881    1.2440 C   0  0  0  0  0  0  0  0  0  0  0  0
   26.0128    1.8212    5.0487 C   0  0  0  0  0  0  0  0  0  0  0  0
  1  2  1  0
  1  5  1  0
  2  3  1  0
  3  4  1  0
  4  6  1  0
  4 10  1  0
  4 11  1  0
  5  6  2  0
  5  9  1  0
  6  7  1  0
  7  8  2  0
  7 23  1  0
  8  9  1  0
  8 16  1  0
 11 12  1  0
 11 15  2  0
 12 13  1  0
 13 14  2  0
 14 15  1  0
 14 17  1  0
 17 18  2  0
 17 22  1  0
 18 19  1  0
 19 20  2  0
 19 25  1  0
 20 21  1  0
 21 22  2  0
 23 24  3  0
 25 26  1  0
 25 30  1  0
 26 27  1  0
 26 32  1  0
 27 28  1  0
 28 29  1  0
 28 31  1  0
 29 30  1  0
M  END
>  <sigma_x>  (4) 
0.8420343399047852,0.8438858985900879,0.8404838442802429,0.8340720534324646,0.8347082734107971,0.8336933851242065,0.8331100940704346,0.8345950841903687,0.8381808400154114,0.8455858826637268,0.8379510045051575,0.854234516620636,0.8495211601257324,0.8363480567932129,0.8400858044624329,0.8397365212440491,0.8354502320289612,0.834357738494873,0.8346055746078491,0.8398154377937317,0.8417049050331116,0.8390026092529297,0.8361100554466248,0.8439307808876038,0.8401026725769043,0.8456854224205017,0.8495380282402039,0.8523236513137817,0.8581556081771851,0.8576549291610718,0.8614686131477356,0.859870433807373

>  <entropy_h>  (4) 
0.0,0.0,0.0,0.0,0.0,0.0,0.0,0.0,0.0,0.0,0.0,0.0,0.0,0.0,0.0,0.0,0.0,0.0,0.0,0.0,0.0,0.0,0.0,0.0,0.0,0.0,0.0,0.0,0.0,0.0,0.0,0.0

$$$$

     RDKit          3D

 32 36  0  0  0  0  0  0  0  0999 V2000
   15.7135    1.7959    5.2048 C   0  0  0  0  0  0  0  0  0  0  0  0
   16.2003    1.9609    6.6500 C   0  0  0  0  0  0  0  0  0  0  0  0
   17.6943    1.5505    6.7740 C   0  0  0  0  0  0  0  0  0  0  0  0
   17.9486    0.0448    6.4402 C   0  0  0  0  0  0  0  0  0  0  0  0
   16.1280    0.4443    4.6522 C   0  0  0  0  0  0  0  0  0  0  0  0
   17.0771   -0.3915    5.2358 C   0  0  0  0  0  0  0  0  0  0  0  0
   17.1186   -1.6705    4.6240 C   0  0  0  0  0  0  0  0  0  0  0  0
   16.2018   -1.7849    3.5655 C   0  0  0  0  0  0  0  0  0  0  0  0
   15.3491   -0.3560    3.3910 S   0  0  0  0  0  0  0  0  0  0  0  0
   17.6037   -0.8318    7.6746 C   0  0  0  0  0  0  0  0  0  0  0  0
   19.3954   -0.1724    6.0285 C   0  0  0  0  0  0  0  0  0  0  0  0
   19.8676    0.1755    4.8364 O   0  0  0  0  0  0  0  0  0  0  0  0
   21.1276   -0.1451    4.7580 N   0  0  0  0  0  0  0  0  0  0  0  0
   21.4304   -0.6950    5.9458 C   0  0  0  0  0  0  0  0  0  0  0  0
   20.3656   -0.7359    6.7726 N   0  0  0  0  0  0  0  0  0  0  0  0
   16.0287   -2.9395    2.7177 N   0  0  0  0  0  0  0  0  0  0  0  0
   22.7848   -1.2253    6.3100 C   0  0  0  0  0  0  0  0  0  0  0  0
   23.8417   -0.7810    5.5880 N   0  0  0  0  0  0  0  0  0  0  0  0
   25.1119   -1.2246    5.8325 C   0  0  0  0  0  0  0  0  0  0  0  0
   25.3385   -2.1718    6.8513 C   0  0  0  0  0  0  0  0  0  0  0  0
   24.2680   -2.6197    7.6155 C   0  0  0  0  0  0  0  0  0  0  0  0
   22.9905   -2.1492    7.3626 C   0  0  0  0  0  0  0  0  0  0  0  0
   18.0436   -2.7158    4.9533 C   0  0  0  0  0  0  0  0  0  0  0  0
   18.8236   -3.5307    5.1839 N   0  0  0  0  0  0  0  0  0  0  0  0
   26.2102   -0.7609    5.0134 N   0  0  0  0  0  0  0  0  0  0  0  0
   25.9547    0.3720    4.0787 C   0  0  0  0  0  0  0  0  0  0  0  0
   26.8741    0.3162    2.8279 C   0  0  0  0  0  0  0  0  0  0  0  0
   28.2654   -0.0609    3.1694 N   0  0  0  0  0  0  0  0  0  0  0  0
   28.3190   -1.3872    3.8328 C   0  0  0  0  0  0  0  0  0  0  0  0
   27.5902   -1.2824    5.1770 C   0  0  0  0  0  0  0  0  0  0  0  0
   29.0800   -0.1046    1.9148 C   0  0  0  0  0  0  0  0  0  0  0  0
   26.0057    1.7104    4.8565 C   0  0  0  0  0  0  0  0  0  0  0  0
  1  2  1  0
  1  5  1  0
  2  3  1  0
  3  4  1  0
  4  6  1  0
  4 10  1  0
  4 11  1  0
  5  6  2  0
  5  9  1  0
  6  7  1  0
  7  8  2  0
  7 23  1  0
  8  9  1  0
  8 16  1  0
 11 12  1  0
 11 15  2  0
 12 13  1  0
 13 14  2  0
 14 15  1  0
 14 17  1  0
 17 18  2  0
 17 22  1  0
 18 19  1  0
 19 20  2  0
 19 25  1  0
 20 21  1  0
 21 22  2  0
 23 24  3  0
 25 26  1  0
 25 30  1  0
 26 27  1  0
 26 32  1  0
 27 28  1  0
 28 29  1  0
 28 31  1  0
 29 30  1  0
M  END
>  <sigma_x>  (5) 
0.8405914902687073,0.8429685235023499,0.8393182158470154,0.8329552412033081,0.833912193775177,0.833299994468689,0.8325335383415222,0.8342448472976685,0.8370000123977661,0.8425782918930054,0.835982620716095,0.8468095064163208,0.8438547849655151,0.8338967561721802,0.8371233940124512,0.8397234082221985,0.8332769274711609,0.8339892625808716,0.8338409662246704,0.8369323015213013,0.8379925489425659,0.8355613946914673,0.8365293741226196,0.8448659181594849,0.8380514979362488,0.8498145341873169,0.8520174026489258,0.8536353707313538,0.8563749194145203,0.8526594638824463,0.8599985837936401,0.867336630821228

>  <entropy_h>  (5) 
0.0,0.0,0.0,0.0,0.0,0.0,0.0,0.0,0.0,0.0,0.0,0.0,0.0,0.0,0.0,0.0,0.0,0.0,0.0,0.0,0.0,0.0,0.0,0.0,0.0,0.0,0.0,0.0,0.0,0.0,0.0,0.0

$$$$

     RDKit          3D

 32 36  0  0  0  0  0  0  0  0999 V2000
   16.5361    1.8963    4.7334 C   0  0  0  0  0  0  0  0  0  0  0  0
   17.5437    2.4501    5.7618 C   0  0  0  0  0  0  0  0  0  0  0  0
   18.7602    1.5263    5.9846 C   0  0  0  0  0  0  0  0  0  0  0  0
   18.3092    0.0938    6.4113 C   0  0  0  0  0  0  0  0  0  0  0  0
   16.5826    0.4017    4.5798 C   0  0  0  0  0  0  0  0  0  0  0  0
   17.4851   -0.4590    5.2332 C   0  0  0  0  0  0  0  0  0  0  0  0
   17.4481   -1.7747    4.6421 C   0  0  0  0  0  0  0  0  0  0  0  0
   16.4990   -1.8445    3.6254 C   0  0  0  0  0  0  0  0  0  0  0  0
   15.6997   -0.3808    3.3703 S   0  0  0  0  0  0  0  0  0  0  0  0
   17.4032    0.2012    7.6683 C   0  0  0  0  0  0  0  0  0  0  0  0
   19.4967   -0.8062    6.8364 C   0  0  0  0  0  0  0  0  0  0  0  0
   19.4690   -1.6633    7.8432 O   0  0  0  0  0  0  0  0  0  0  0  0
   20.6581   -2.1418    8.0467 N   0  0  0  0  0  0  0  0  0  0  0  0
   21.4477   -1.5356    7.1515 C   0  0  0  0  0  0  0  0  0  0  0  0
   20.7694   -0.7057    6.3902 N   0  0  0  0  0  0  0  0  0  0  0  0
   16.2922   -2.9801    2.7632 N   0  0  0  0  0  0  0  0  0  0  0  0
   22.9060   -1.7758    7.0156 C   0  0  0  0  0  0  0  0  0  0  0  0
   23.6412   -0.9788    6.2110 N   0  0  0  0  0  0  0  0  0  0  0  0
   24.9776   -1.1406    6.0303 C   0  0  0  0  0  0  0  0  0  0  0  0
   25.6397   -2.1573    6.7172 C   0  0  0  0  0  0  0  0  0  0  0  0
   24.9115   -2.9873    7.5477 C   0  0  0  0  0  0  0  0  0  0  0  0
   23.5627   -2.8123    7.7175 C   0  0  0  0  0  0  0  0  0  0  0  0
   18.2713   -2.9030    5.0170 C   0  0  0  0  0  0  0  0  0  0  0  0
   18.9456   -3.7908    5.2972 N   0  0  0  0  0  0  0  0  0  0  0  0
   25.6864   -0.2549    5.1174 N   0  0  0  0  0  0  0  0  0  0  0  0
   26.8030   -0.7762    4.2784 C   0  0  0  0  0  0  0  0  0  0  0  0
   27.1947    0.2265    3.1593 C   0  0  0  0  0  0  0  0  0  0  0  0
   27.4866    1.5787    3.7369 N   0  0  0  0  0  0  0  0  0  0  0  0
   26.4882    2.0558    4.7236 C   0  0  0  0  0  0  0  0  0  0  0  0
   25.2643    1.1301    4.8591 C   0  0  0  0  0  0  0  0  0  0  0  0
   27.6417    2.5228    2.5939 C   0  0  0  0  0  0  0  0  0  0  0  0
   28.0414   -1.0481    5.1560 C   0  0  0  0  0  0  0  0  0  0  0  0
  1  2  1  0
  1  5  1  0
  2  3  1  0
  3  4  1  0
  4  6  1  0
  4 10  1  0
  4 11  1  0
  5  6  2  0
  5  9  1  0
  6  7  1  0
  7  8  2  0
  7 23  1  0
  8  9  1  0
  8 16  1  0
 11 12  1  0
 11 15  2  0
 12 13  1  0
 13 14  2  0
 14 15  1  0
 14 17  1  0
 17 18  2  0
 17 22  1  0
 18 19  1  0
 19 20  2  0
 19 25  1  0
 20 21  1  0
 21 22  2  0
 23 24  3  0
 25 26  1  0
 25 30  1  0
 26 27  1  0
 26 32  1  0
 27 28  1  0
 28 29  1  0
 28 31  1  0
 29 30  1  0
M  END
>  <sigma_x>  (6) 
0.841518759727478,0.84430330991745,0.8395833969116211,0.8334823846817017,0.8345615863800049,0.8338521718978882,0.8328264951705933,0.8344031572341919,0.8378667235374451,0.8439284563064575,0.8364023566246033,0.8496279120445251,0.8455144762992859,0.8339558839797974,0.8369909524917603,0.8395822644233704,0.8331958651542664,0.8327488899230957,0.8332836627960205,0.8376376032829285,0.8383686542510986,0.8358408808708191,0.8368510007858276,0.8464003801345825,0.8379244208335876,0.8483652472496033,0.8531959056854248,0.8527207970619202,0.856552004814148,0.8546087145805359,0.8591215014457703,0.8715465664863586

>  <entropy_h>  (6) 
0.0,0.0,0.0,0.0,0.0,0.0,0.0,0.0,0.0,0.0,0.0,0.0,0.0,0.0,0.0,0.0,0.0,0.0,0.0,0.0,0.0,0.0,0.0,0.0,0.0,0.0,0.0,0.0,0.0,0.0,0.0,0.0

$$$$

     RDKit          3D

 32 36  0  0  0  0  0  0  0  0999 V2000
   16.6010    2.0699    4.8554 C   0  0  0  0  0  0  0  0  0  0  0  0
   17.7498    2.6383    5.7153 C   0  0  0  0  0  0  0  0  0  0  0  0
   18.9272    1.6488    5.9391 C   0  0  0  0  0  0  0  0  0  0  0  0
   18.4439    0.2305    6.3541 C   0  0  0  0  0  0  0  0  0  0  0  0
   16.7331    0.6125    4.5768 C   0  0  0  0  0  0  0  0  0  0  0  0
   17.6144   -0.2923    5.1685 C   0  0  0  0  0  0  0  0  0  0  0  0
   17.5420   -1.5835    4.6102 C   0  0  0  0  0  0  0  0  0  0  0  0
   16.5452   -1.6657    3.6566 C   0  0  0  0  0  0  0  0  0  0  0  0
   15.8257   -0.1780    3.4194 S   0  0  0  0  0  0  0  0  0  0  0  0
   17.4951    0.2870    7.5885 C   0  0  0  0  0  0  0  0  0  0  0  0
   19.6469   -0.6452    6.7493 C   0  0  0  0  0  0  0  0  0  0  0  0
   19.6145   -1.5975    7.6606 O   0  0  0  0  0  0  0  0  0  0  0  0
   20.8045   -2.0944    7.8098 N   0  0  0  0  0  0  0  0  0  0  0  0
   21.5928   -1.4116    6.9797 C   0  0  0  0  0  0  0  0  0  0  0  0
   20.9057   -0.5061    6.2918 N   0  0  0  0  0  0  0  0  0  0  0  0
   16.1045   -2.8685    3.0211 N   0  0  0  0  0  0  0  0  0  0  0  0
   23.0336   -1.6683    6.8221 C   0  0  0  0  0  0  0  0  0  0  0  0
   23.7768   -0.8507    6.0451 N   0  0  0  0  0  0  0  0  0  0  0  0
   25.1185   -1.0320    5.8765 C   0  0  0  0  0  0  0  0  0  0  0  0
   25.7622   -2.0899    6.5347 C   0  0  0  0  0  0  0  0  0  0  0  0
   25.0211   -2.9182    7.3326 C   0  0  0  0  0  0  0  0  0  0  0  0
   23.6712   -2.7247    7.4839 C   0  0  0  0  0  0  0  0  0  0  0  0
   18.4158   -2.6953    4.8663 C   0  0  0  0  0  0  0  0  0  0  0  0
   19.1276   -3.5817    5.0707 N   0  0  0  0  0  0  0  0  0  0  0  0
   25.8341   -0.1370    5.0341 N   0  0  0  0  0  0  0  0  0  0  0  0
   26.7125   -0.7165    3.9951 C   0  0  0  0  0  0  0  0  0  0  0  0
   26.8444    0.3081    2.8488 C   0  0  0  0  0  0  0  0  0  0  0  0
   27.3141    1.5957    3.3770 N   0  0  0  0  0  0  0  0  0  0  0  0
   26.3717    2.1665    4.3705 C   0  0  0  0  0  0  0  0  0  0  0  0
   26.1630    1.2071    5.5406 C   0  0  0  0  0  0  0  0  0  0  0  0
   27.6536    2.5696    2.3267 C   0  0  0  0  0  0  0  0  0  0  0  0
   28.0846   -1.1057    4.5758 C   0  0  0  0  0  0  0  0  0  0  0  0
  1  2  1  0
  1  5  1  0
  2  3  1  0
  3  4  1  0
  4  6  1  0
  4 10  1  0
  4 11  1  0
  5  6  2  0
  5  9  1  0
  6  7  1  0
  7  8  2  0
  7 23  1  0
  8  9  1  0
  8 16  1  0
 11 12  1  0
 11 15  2  0
 12 13  1  0
 13 14  2  0
 14 15  1  0
 14 17  1  0
 17 18  2  0
 17 22  1  0
 18 19  1  0
 19 20  2  0
 19 25  1  0
 20 21  1  0
 21 22  2  0
 23 24  3  0
 25 26  1  0
 25 30  1  0
 26 27  1  0
 26 32  1  0
 27 28  1  0
 28 29  1  0
 28 31  1  0
 29 30  1  0
M  END
>  <sigma_x>  (7) 
0.8412197828292847,0.8446489572525024,0.8401283621788025,0.833633303642273,0.8346343636512756,0.8340193033218384,0.832816481590271,0.8343532681465149,0.8385236859321594,0.8432122468948364,0.8352965712547302,0.8480885028839111,0.8446502089500427,0.8338320255279541,0.8368847370147705,0.8395025730133057,0.8334669470787048,0.8333806395530701,0.83330237865448,0.8373302817344666,0.8388313055038452,0.836029052734375,0.8359800577163696,0.8436238169670105,0.8387889862060547,0.8493853211402893,0.8508098125457764,0.8508615493774414,0.8555024862289429,0.8527302145957947,0.856225311756134,0.8715054392814636

>  <entropy_h>  (7) 
0.0,0.0,0.0,0.0,0.0,0.0,0.0,0.0,0.0,0.0,0.0,0.0,0.0,0.0,0.0,0.0,0.0,0.0,0.0,0.0,0.0,0.0,0.0,0.0,0.0,0.0,0.0,0.0,0.0,0.0,0.0,0.0

$$$$

     RDKit          3D

 32 36  0  0  0  0  0  0  0  0999 V2000
   15.7117    1.8287    4.9475 C   0  0  0  0  0  0  0  0  0  0  0  0
   16.2901    2.1471    6.3256 C   0  0  0  0  0  0  0  0  0  0  0  0
   17.7658    1.6896    6.4329 C   0  0  0  0  0  0  0  0  0  0  0  0
   17.9361    0.1447    6.2411 C   0  0  0  0  0  0  0  0  0  0  0  0
   16.0566    0.4133    4.5170 C   0  0  0  0  0  0  0  0  0  0  0  0
   17.0844   -0.3652    5.0706 C   0  0  0  0  0  0  0  0  0  0  0  0
   17.1408   -1.6586    4.4962 C   0  0  0  0  0  0  0  0  0  0  0  0
   16.2254   -1.8398    3.4556 C   0  0  0  0  0  0  0  0  0  0  0  0
   15.2974   -0.4365    3.2746 S   0  0  0  0  0  0  0  0  0  0  0  0
   17.5217   -0.5894    7.5318 C   0  0  0  0  0  0  0  0  0  0  0  0
   19.3833   -0.1236    5.8764 C   0  0  0  0  0  0  0  0  0  0  0  0
   19.8595    0.0723    4.6053 O   0  0  0  0  0  0  0  0  0  0  0  0
   21.1106   -0.2983    4.5720 N   0  0  0  0  0  0  0  0  0  0  0  0
   21.4028   -0.7159    5.8313 C   0  0  0  0  0  0  0  0  0  0  0  0
   20.3474   -0.6150    6.6663 N   0  0  0  0  0  0  0  0  0  0  0  0
   16.0840   -3.0362    2.6711 N   0  0  0  0  0  0  0  0  0  0  0  0
   22.7194   -1.2534    6.2461 C   0  0  0  0  0  0  0  0  0  0  0  0
   23.8357   -0.8289    5.5936 N   0  0  0  0  0  0  0  0  0  0  0  0
   25.0768   -1.2757    5.8956 C   0  0  0  0  0  0  0  0  0  0  0  0
   25.2508   -2.1998    6.9329 C   0  0  0  0  0  0  0  0  0  0  0  0
   24.1414   -2.6585    7.6320 C   0  0  0  0  0  0  0  0  0  0  0  0
   22.8720   -2.1949    7.2966 C   0  0  0  0  0  0  0  0  0  0  0  0
   18.0609   -2.6999    4.8980 C   0  0  0  0  0  0  0  0  0  0  0  0
   18.8123   -3.5195    5.1744 N   0  0  0  0  0  0  0  0  0  0  0  0
   26.1670   -0.7616    5.1155 N   0  0  0  0  0  0  0  0  0  0  0  0
   25.9340    0.4397    4.2948 C   0  0  0  0  0  0  0  0  0  0  0  0
   26.8297    0.4421    3.0406 C   0  0  0  0  0  0  0  0  0  0  0  0
   28.2497    0.1598    3.3744 N   0  0  0  0  0  0  0  0  0  0  0  0
   28.3607   -1.1886    4.0078 C   0  0  0  0  0  0  0  0  0  0  0  0
   27.5487   -1.2262    5.3319 C   0  0  0  0  0  0  0  0  0  0  0  0
   29.1290    0.2652    2.1896 C   0  0  0  0  0  0  0  0  0  0  0  0
   26.1391    1.6953    5.1786 C   0  0  0  0  0  0  0  0  0  0  0  0
  1  2  1  0
  1  5  1  0
  2  3  1  0
  3  4  1  0
  4  6  1  0
  4 10  1  0
  4 11  1  0
  5  6  2  0
  5  9  1  0
  6  7  1  0
  7  8  2  0
  7 23  1  0
  8  9  1  0
  8 16  1  0
 11 12  1  0
 11 15  2  0
 12 13  1  0
 13 14  2  0
 14 15  1  0
 14 17  1  0
 17 18  2  0
 17 22  1  0
 18 19  1  0
 19 20  2  0
 19 25  1  0
 20 21  1  0
 21 22  2  0
 23 24  3  0
 25 26  1  0
 25 30  1  0
 26 27  1  0
 26 32  1  0
 27 28  1  0
 28 29  1  0
 28 31  1  0
 29 30  1  0
M  END
>  <sigma_x>  (8) 
0.8393749594688416,0.8412777185440063,0.8376920819282532,0.8324903845787048,0.8327784538269043,0.8329560160636902,0.832379937171936,0.8331811428070068,0.8355052471160889,0.8399351239204407,0.8344583511352539,0.8407303094863892,0.8402264714241028,0.8322780132293701,0.8354243636131287,0.8383014798164368,0.8319714665412903,0.8332130908966064,0.8324229717254639,0.8352383971214294,0.8352614045143127,0.8338112831115723,0.8358433246612549,0.8451380133628845,0.8353521823883057,0.843027651309967,0.8480497002601624,0.8544825911521912,0.8519455194473267,0.8436536192893982,0.8665835857391357,0.8480230569839478

>  <entropy_h>  (8) 
0.0,0.0,0.0,0.0,0.0,0.0,0.0,0.0,0.0,0.0,0.0,0.0,0.0,0.0,0.0,0.0,0.0,0.0,0.0,0.0,0.0,0.0,0.0,0.0,0.0,0.0,0.0,0.0,0.0,0.0,0.0,0.0

$$$$

     RDKit          3D

 32 36  0  0  0  0  0  0  0  0999 V2000
   16.6653    2.0569    4.6723 C   0  0  0  0  0  0  0  0  0  0  0  0
   17.3766    2.4749    5.9799 C   0  0  0  0  0  0  0  0  0  0  0  0
   18.6625    1.6470    6.2468 C   0  0  0  0  0  0  0  0  0  0  0  0
   18.3132    0.1109    6.4133 C   0  0  0  0  0  0  0  0  0  0  0  0
   16.6993    0.5597    4.4907 C   0  0  0  0  0  0  0  0  0  0  0  0
   17.5784   -0.3297    5.1039 C   0  0  0  0  0  0  0  0  0  0  0  0
   17.4933   -1.6191    4.5538 C   0  0  0  0  0  0  0  0  0  0  0  0
   16.4844   -1.7293    3.6098 C   0  0  0  0  0  0  0  0  0  0  0  0
   15.7494   -0.2545    3.3754 S   0  0  0  0  0  0  0  0  0  0  0  0
   17.3390   -0.0622    7.6391 C   0  0  0  0  0  0  0  0  0  0  0  0
   19.6183   -0.7080    6.7442 C   0  0  0  0  0  0  0  0  0  0  0  0
   19.6078   -1.6724    7.6898 O   0  0  0  0  0  0  0  0  0  0  0  0
   20.7966   -2.1777    7.8461 N   0  0  0  0  0  0  0  0  0  0  0  0
   21.5874   -1.4953    7.0095 C   0  0  0  0  0  0  0  0  0  0  0  0
   20.8971   -0.5591    6.3105 N   0  0  0  0  0  0  0  0  0  0  0  0
   16.1258   -2.9444    2.9077 N   0  0  0  0  0  0  0  0  0  0  0  0
   23.0438   -1.7474    6.8823 C   0  0  0  0  0  0  0  0  0  0  0  0
   23.8233   -0.8964    6.1531 N   0  0  0  0  0  0  0  0  0  0  0  0
   25.1775   -1.1023    6.0224 C   0  0  0  0  0  0  0  0  0  0  0  0
   25.7887   -2.1780    6.6790 C   0  0  0  0  0  0  0  0  0  0  0  0
   25.0155   -3.0273    7.4314 C   0  0  0  0  0  0  0  0  0  0  0  0
   23.6355   -2.8240    7.5613 C   0  0  0  0  0  0  0  0  0  0  0  0
   18.3645   -2.7331    4.8165 C   0  0  0  0  0  0  0  0  0  0  0  0
   19.0721   -3.6498    4.9991 N   0  0  0  0  0  0  0  0  0  0  0  0
   25.9907   -0.1832    5.2435 N   0  0  0  0  0  0  0  0  0  0  0  0
   25.6473    1.2533    5.1834 C   0  0  0  0  0  0  0  0  0  0  0  0
   26.7317    2.0039    4.3777 C   0  0  0  0  0  0  0  0  0  0  0  0
   26.8135    1.4428    3.0154 N   0  0  0  0  0  0  0  0  0  0  0  0
   26.9162   -0.0385    2.9450 C   0  0  0  0  0  0  0  0  0  0  0  0
   27.0332   -0.6979    4.3473 C   0  0  0  0  0  0  0  0  0  0  0  0
   28.0340    1.9976    2.4031 C   0  0  0  0  0  0  0  0  0  0  0  0
   21.3530   -0.5962    5.4525 C   0  0  0  0  0  0  0  0  0  0  0  0
  1  2  1  0
  1  5  1  0
  2  3  1  0
  3  4  1  0
  4  6  1  0
  4 10  1  0
  4 11  1  0
  5  6  2  0
  5  9  1  0
  6  7  1  0
  7  8  2  0
  7 23  1  0
  8  9  1  0
  8 16  1  0
 11 12  1  0
 11 15  2  0
 12 13  1  0
 13 14  2  0
 14 15  1  0
 14 17  1  0
 17 18  2  0
 17 22  1  0
 18 19  1  0
 19 20  2  0
 19 25  1  0
 20 21  1  0
 21 22  2  0
 23 24  3  0
 25 26  1  0
 25 30  1  0
 26 27  1  0
 26 32  1  0
 27 28  1  0
 28 29  1  0
 28 31  1  0
 29 30  1  0
M  END
>  <sigma_x>  (9) 
0.8411062359809875,0.843377411365509,0.8397215008735657,0.8335334062576294,0.834606945514679,0.8340889811515808,0.8327966928482056,0.8345495462417603,0.8381267189979553,0.8434247374534607,0.8363178968429565,0.8496384024620056,0.8455790877342224,0.83465576171875,0.8368378281593323,0.8392602801322937,0.8339264392852783,0.8328193426132202,0.8336947560310364,0.8372311592102051,0.838975727558136,0.8365507125854492,0.8360984325408936,0.8438766598701477,0.8389244675636292,0.851112425327301,0.8541036248207092,0.8516625761985779,0.8608588576316833,0.8550124168395996,0.8606399297714233,0.8591381311416626

>  <entropy_h>  (9) 
0.0,0.0,0.0,0.0,0.0,0.0,0.0,0.0,0.0,0.0,0.0,0.0,0.0,0.0,0.0,0.0,0.0,0.0,0.0,0.0,0.0,0.0,0.0,0.0,0.0,0.0,0.0,0.0,0.0,0.0,0.0,0.0

$$$$

     RDKit          3D

 32 36  0  0  0  0  0  0  0  0999 V2000
   15.6579    1.7402    4.8498 C   0  0  0  0  0  0  0  0  0  0  0  0
   16.3534    2.1537    6.1586 C   0  0  0  0  0  0  0  0  0  0  0  0
   17.8338    1.6892    6.1700 C   0  0  0  0  0  0  0  0  0  0  0  0
   17.9914    0.1403    6.1226 C   0  0  0  0  0  0  0  0  0  0  0  0
   16.0113    0.3357    4.4831 C   0  0  0  0  0  0  0  0  0  0  0  0
   17.0563   -0.4050    5.0430 C   0  0  0  0  0  0  0  0  0  0  0  0
   17.1492   -1.7119    4.4586 C   0  0  0  0  0  0  0  0  0  0  0  0
   16.1880   -1.9167    3.4825 C   0  0  0  0  0  0  0  0  0  0  0  0
   15.2289   -0.5459    3.2793 S   0  0  0  0  0  0  0  0  0  0  0  0
   17.6508   -0.4917    7.4894 C   0  0  0  0  0  0  0  0  0  0  0  0
   19.4324   -0.1981    5.7290 C   0  0  0  0  0  0  0  0  0  0  0  0
   19.9562    0.0910    4.5570 O   0  0  0  0  0  0  0  0  0  0  0  0
   21.2168   -0.2152    4.5502 N   0  0  0  0  0  0  0  0  0  0  0  0
   21.4934   -0.7197    5.7698 C   0  0  0  0  0  0  0  0  0  0  0  0
   20.3957   -0.7185    6.5447 N   0  0  0  0  0  0  0  0  0  0  0  0
   16.0504   -3.1120    2.7256 N   0  0  0  0  0  0  0  0  0  0  0  0
   22.8166   -1.2178    6.1948 C   0  0  0  0  0  0  0  0  0  0  0  0
   23.9323   -0.7013    5.6236 N   0  0  0  0  0  0  0  0  0  0  0  0
   25.1910   -1.1088    5.9314 C   0  0  0  0  0  0  0  0  0  0  0  0
   25.3668   -2.1301    6.8736 C   0  0  0  0  0  0  0  0  0  0  0  0
   24.2424   -2.6803    7.4814 C   0  0  0  0  0  0  0  0  0  0  0  0
   22.9637   -2.2306    7.1484 C   0  0  0  0  0  0  0  0  0  0  0  0
   18.0922   -2.7598    4.8324 C   0  0  0  0  0  0  0  0  0  0  0  0
   18.8548   -3.5672    5.1216 N   0  0  0  0  0  0  0  0  0  0  0  0
   26.2891   -0.4868    5.2564 N   0  0  0  0  0  0  0  0  0  0  0  0
   27.3025   -1.2893    4.5348 C   0  0  0  0  0  0  0  0  0  0  0  0
   27.9355   -0.4771    3.3541 C   0  0  0  0  0  0  0  0  0  0  0  0
   27.0610    0.6360    2.9384 N   0  0  0  0  0  0  0  0  0  0  0  0
   26.9555    1.6156    4.0367 C   0  0  0  0  0  0  0  0  0  0  0  0
   26.4819    0.9653    5.3606 C   0  0  0  0  0  0  0  0  0  0  0  0
   27.5645    1.3108    1.7320 C   0  0  0  0  0  0  0  0  0  0  0  0
   28.4300   -1.7163    5.4859 C   0  0  0  0  0  0  0  0  0  0  0  0
  1  2  1  0
  1  5  1  0
  2  3  1  0
  3  4  1  0
  4  6  1  0
  4 10  1  0
  4 11  1  0
  5  6  2  0
  5  9  1  0
  6  7  1  0
  7  8  2  0
  7 23  1  0
  8  9  1  0
  8 16  1  0
 11 12  1  0
 11 15  2  0
 12 13  1  0
 13 14  2  0
 14 15  1  0
 14 17  1  0
 17 18  2  0
 17 22  1  0
 18 19  1  0
 19 20  2  0
 19 25  1  0
 20 21  1  0
 21 22  2  0
 23 24  3  0
 25 26  1  0
 25 30  1  0
 26 27  1  0
 26 32  1  0
 27 28  1  0
 28 29  1  0
 28 31  1  0
 29 30  1  0
M  END
>  <sigma_x>  (10) 
0.8392304182052612,0.8408699035644531,0.8371327519416809,0.8323831558227539,0.8326093554496765,0.833064079284668,0.8320560455322266,0.833307683467865,0.8355086445808411,0.839925229549408,0.8345677256584167,0.8409529328346252,0.8402826189994812,0.8320828080177307,0.8347380757331848,0.838834285736084,0.831841230392456,0.831725001335144,0.832213282585144,0.8351537585258484,0.834955632686615,0.8333157300949097,0.836008608341217,0.8452492952346802,0.8359982967376709,0.842121958732605,0.848158597946167,0.852211058139801,0.8503319025039673,0.8456012606620789,0.8576028943061829,0.860730767250061

>  <entropy_h>  (10) 
0.0,0.0,0.0,0.0,0.0,0.0,0.0,0.0,0.0,0.0,0.0,0.0,0.0,0.0,0.0,0.0,0.0,0.0,0.0,0.0,0.0,0.0,0.0,0.0,0.0,0.0,0.0,0.0,0.0,0.0,0.0,0.0

$$$$
